
 OpenBabel06022115293D

 43 44  0  0  1  0  0  0  0  0999 V2000
    0.9766    0.9709   -3.6196 C   0  0  0  0  0  0  0  0  0  0  0  0
    1.5257    0.1763   -4.3225 C   0  0  0  0  0  0  0  0  0  0  0  0
    2.1757   -0.7623   -5.2386 N   0  3  0  0  0  3  0  0  0  0  0  0
    2.9410   -1.8987   -4.7177 C   0  0  3  0  0  0  0  0  0  0  0  0
    2.1389   -2.8265   -3.8191 C   0  0  0  0  0  0  0  0  0  0  0  0
    3.1191   -3.3845   -2.7898 C   0  0  0  0  0  0  0  0  0  0  0  0
    4.3845   -2.5054   -2.8164 C   0  0  3  0  0  0  0  0  0  0  0  0
    5.7815   -3.1450   -2.8172 C   0  0  0  0  0  0  0  0  0  0  0  0
    6.9288   -2.3685   -2.4777 C   0  0  0  0  0  0  0  0  0  0  0  0
    6.7580   -0.6278   -2.0735 S   0  0  0  0  0  0  0  0  0  0  0  0
    8.2061    0.2135   -2.8276 C   0  0  3  0  0  0  0  0  0  0  0  0
    8.0418    0.5293   -4.3105 C   0  0  0  0  0  0  0  0  0  0  0  0
    8.3121    1.5178   -2.0587 C   0  0  0  0  0  0  0  0  0  0  0  0
    9.3443    1.8978   -1.5157 O   0  0  0  0  0  0  0  0  0  0  0  0
    8.1680   -2.9992   -2.2750 C   0  0  0  0  0  0  0  0  0  0  0  0
    8.3048   -4.3793   -2.4272 C   0  0  0  0  0  0  0  0  0  0  0  0
    7.2061   -5.1456   -2.8100 C   0  0  0  0  0  0  0  0  0  0  0  0
    7.3918   -6.9448   -2.9168 S   0  0  3  0  0  0  0  0  0  0  0  0
    6.8069   -7.3151   -1.2375 C   0  0  0  0  0  0  0  0  0  0  0  0
    6.3251   -7.4080   -3.8649 O   0  0  0  0  0  0  0  0  0  0  0  0
    5.9651   -4.5269   -3.0341 C   0  0  0  0  0  0  0  0  0  0  0  0
    4.1592   -1.4589   -3.9204 C   0  0  0  0  0  0  0  0  0  0  0  0
    0.4790    1.7022   -3.0233 H   0  0  0  0  0  0  0  0  0  0  0  0
    1.6390   -0.9591   -6.0704 H   0  0  0  0  0  0  0  0  0  0  0  0
    3.2937   -2.4763   -5.5811 H   0  0  0  0  0  0  0  0  0  0  0  0
    1.7000   -3.6425   -4.4065 H   0  0  0  0  0  0  0  0  0  0  0  0
    1.3056   -2.3270   -3.3144 H   0  0  0  0  0  0  0  0  0  0  0  0
    3.2892   -4.4464   -2.9682 H   0  0  0  0  0  0  0  0  0  0  0  0
    2.6571   -3.3248   -1.7946 H   0  0  0  0  0  0  0  0  0  0  0  0
    4.3399   -1.9768   -1.8529 H   0  0  0  0  0  0  0  0  0  0  0  0
    9.1302   -0.3462   -2.6624 H   0  0  0  0  0  0  0  0  0  0  0  0
    7.0539    0.9384   -4.5499 H   0  0  0  0  0  0  0  0  0  0  0  0
    8.2072   -0.3593   -4.9282 H   0  0  0  0  0  0  0  0  0  0  0  0
    8.7767    1.2829   -4.6253 H   0  0  0  0  0  0  0  0  0  0  0  0
    7.3958    2.1352   -2.0205 H   0  0  0  0  0  0  0  0  0  0  0  0
    9.0316   -2.4404   -1.9242 H   0  0  0  0  0  0  0  0  0  0  0  0
    9.2640   -4.8472   -2.2176 H   0  0  0  0  0  0  0  0  0  0  0  0
    7.5073   -6.9067   -0.5047 H   0  0  0  0  0  0  0  0  0  0  0  0
    6.7525   -8.4001   -1.1173 H   0  0  0  0  0  0  0  0  0  0  0  0
    5.8124   -6.8883   -1.0843 H   0  0  0  0  0  0  0  0  0  0  0  0
    5.1398   -5.1658   -3.3359 H   0  0  0  0  0  0  0  0  0  0  0  0
    5.0188   -1.3452   -4.5909 H   0  0  0  0  0  0  0  0  0  0  0  0
    3.9969   -0.4802   -3.4530 H   0  0  0  0  0  0  0  0  0  0  0  0
  1  2  3  0  0  0  0
  1 23  1  0  0  0  0
  2  3  1  0  0  0  0
  3  4  1  0  0  0  0
  3 24  1  0  0  0  0
  4  5  1  0  0  0  0
  4 22  1  0  0  0  0
  4 25  1  0  0  0  0
  5  6  1  0  0  0  0
  5 26  1  0  0  0  0
  5 27  1  0  0  0  0
  6  7  1  0  0  0  0
  6 28  1  0  0  0  0
  6 29  1  0  0  0  0
  7  8  1  0  0  0  0
  7 22  1  0  0  0  0
  7 30  1  0  0  0  0
  8  9  2  0  0  0  0
  8 21  1  0  0  0  0
  9 10  1  0  0  0  0
  9 15  1  0  0  0  0
 10 11  1  0  0  0  0
 11 12  1  0  0  0  0
 11 13  1  0  0  0  0
 11 31  1  0  0  0  0
 12 32  1  0  0  0  0
 12 33  1  0  0  0  0
 12 34  1  0  0  0  0
 13 14  2  0  0  0  0
 13 35  1  0  0  0  0
 15 16  2  0  0  0  0
 15 36  1  0  0  0  0
 16 17  1  0  0  0  0
 16 37  1  0  0  0  0
 17 18  1  0  0  0  0
 17 21  2  0  0  0  0
 18 19  1  0  0  0  0
 18 20  2  0  0  0  0
 19 38  1  0  0  0  0
 19 39  1  0  0  0  0
 19 40  1  0  0  0  0
 21 41  1  0  0  0  0
 22 42  1  0  0  0  0
 22 43  1  0  0  0  0
M  CHG  1   3   1
M  END
