
 OpenBabel06022115293D

 46 48  0  0  1  0  0  0  0  0999 V2000
    8.5302   -1.1315   -3.2668 N   0  0  0  0  0  0  0  0  0  0  0  0
    7.4695   -0.5988   -2.5969 C   0  0  0  0  0  0  0  0  0  0  0  0
    6.4860   -0.2350   -3.2281 O   0  0  0  0  0  0  0  0  0  0  0  0
    7.6959   -0.5033   -1.2560 N   0  0  0  0  0  0  0  0  0  0  0  0
    6.8279    0.0721   -0.3104 C   0  0  0  0  0  0  0  0  0  0  0  0
    5.4778    0.3121   -0.5301 C   0  0  0  0  0  0  0  0  0  0  0  0
    4.7387    1.0145    0.4194 C   0  0  0  0  0  0  0  0  0  0  0  0
    5.3596    1.4762    1.5962 C   0  0  0  0  0  0  0  0  0  0  0  0
    4.5509    2.3344    2.4477 N   0  3  0  0  0  0  0  0  0  0  0  0
    3.4620    1.8923    2.8342 O   0  0  0  0  0  0  0  0  0  0  0  0
    4.9946    3.4657    2.6963 O   0  5  0  0  0  0  0  0  0  0  0  0
    6.7020    1.1785    1.9053 C   0  0  0  0  0  0  0  0  0  0  0  0
    7.3799    1.5199    3.2437 C   0  0  3  0  0  0  0  0  0  0  0  0
    7.2213    0.4598    4.2326 N   0  0  0  0  0  0  0  0  0  0  0  0
    7.6655   -0.8289    4.1234 C   0  0  0  0  0  0  0  0  0  0  0  0
    8.2594   -1.3305    3.1819 O   0  0  0  0  0  0  0  0  0  0  0  0
    8.8033    2.1020    3.1750 C   0  0  0  0  0  0  0  0  0  0  0  0
    9.0607    3.4131    3.6175 C   0  0  0  0  0  0  0  0  0  0  0  0
   10.3050    4.0327    3.3898 C   0  0  0  0  0  0  0  0  0  0  0  0
   11.3085    3.3739    2.6784 C   0  0  0  0  0  0  0  0  0  0  0  0
   12.5233    3.9660    2.2732 N   0  0  0  0  0  0  0  0  0  0  0  0
   13.1237    5.0618    3.0203 C   0  0  0  0  0  0  0  0  0  0  0  0
   12.8800    6.5010    2.6852 C   0  0  0  0  0  0  0  0  0  0  0  0
   14.2211    5.8879    2.4003 C   0  0  0  0  0  0  0  0  0  0  0  0
   11.0857    2.0495    2.3112 C   0  0  0  0  0  0  0  0  0  0  0  0
    9.8880    1.4059    2.6262 C   0  0  0  0  0  0  0  0  0  0  0  0
    7.3904    0.4474    0.9127 C   0  0  0  0  0  0  0  0  0  0  0  0
    8.3356   -1.2573   -4.2513 H   0  0  0  0  0  0  0  0  0  0  0  0
    9.0053   -1.9125   -2.8310 H   0  0  0  0  0  0  0  0  0  0  0  0
    8.6626   -0.6147   -0.9813 H   0  0  0  0  0  0  0  0  0  0  0  0
    4.9843   -0.0297   -1.4367 H   0  0  0  0  0  0  0  0  0  0  0  0
    3.6876    1.2199    0.2198 H   0  0  0  0  0  0  0  0  0  0  0  0
    6.7969    2.3253    3.6938 H   0  0  0  0  0  0  0  0  0  0  0  0
    6.7802    0.7164    5.1061 H   0  0  0  0  0  0  0  0  0  0  0  0
    7.4127   -1.4175    5.0218 H   0  0  0  0  0  0  0  0  0  0  0  0
    8.2872    3.9847    4.1288 H   0  0  0  0  0  0  0  0  0  0  0  0
   10.4527    5.0531    3.7313 H   0  0  0  0  0  0  0  0  0  0  0  0
   12.5542    4.0325    1.2555 H   0  0  0  0  0  0  0  0  0  0  0  0
   13.2768    4.8023    4.0665 H   0  0  0  0  0  0  0  0  0  0  0  0
   12.8019    7.1963    3.5141 H   0  0  0  0  0  0  0  0  0  0  0  0
   12.2440    6.7385    1.8408 H   0  0  0  0  0  0  0  0  0  0  0  0
   15.0533    6.1703    3.0341 H   0  0  0  0  0  0  0  0  0  0  0  0
   14.4890    5.7185    1.3640 H   0  0  0  0  0  0  0  0  0  0  0  0
   11.8619    1.4957    1.7885 H   0  0  0  0  0  0  0  0  0  0  0  0
    9.8255    0.3493    2.3921 H   0  0  0  0  0  0  0  0  0  0  0  0
    8.4134    0.1449    1.0742 H   0  0  0  0  0  0  0  0  0  0  0  0
  1  2  1  0  0  0  0
  1 28  1  0  0  0  0
  1 29  1  0  0  0  0
  2  3  2  0  0  0  0
  2  4  1  0  0  0  0
  4  5  1  0  0  0  0
  4 30  1  0  0  0  0
  5  6  2  0  0  0  0
  5 27  1  0  0  0  0
  6  7  1  0  0  0  0
  6 31  1  0  0  0  0
  7  8  2  0  0  0  0
  7 32  1  0  0  0  0
  8  9  1  0  0  0  0
  8 12  1  0  0  0  0
  9 10  2  0  0  0  0
  9 11  1  0  0  0  0
 12 13  1  0  0  0  0
 12 27  2  0  0  0  0
 13 14  1  0  0  0  0
 13 17  1  0  0  0  0
 13 33  1  0  0  0  0
 14 15  1  0  0  0  0
 14 34  1  0  0  0  0
 15 16  2  0  0  0  0
 15 35  1  0  0  0  0
 17 18  2  0  0  0  0
 17 26  1  0  0  0  0
 18 19  1  0  0  0  0
 18 36  1  0  0  0  0
 19 20  2  0  0  0  0
 19 37  1  0  0  0  0
 20 21  1  0  0  0  0
 20 25  1  0  0  0  0
 21 22  1  0  0  0  0
 21 38  1  0  0  0  0
 22 23  1  0  0  0  0
 22 24  1  0  0  0  0
 22 39  1  0  0  0  0
 23 24  1  0  0  0  0
 23 40  1  0  0  0  0
 23 41  1  0  0  0  0
 24 42  1  0  0  0  0
 24 43  1  0  0  0  0
 25 26  2  0  0  0  0
 25 44  1  0  0  0  0
 26 45  1  0  0  0  0
 27 46  1  0  0  0  0
M  CHG  2   9   1  11  -1
M  END
